*Heading
** Job name: tensile-explicit Model name: tensile-explicit
** Generated by: Abaqus/CAE 2023
*Preprint, echo=NO, model=NO, history=NO, contact=NO
**
** PARTS
**
*Part, name=Part-1
*End Part
**  
**
** ASSEMBLY
**
*Assembly, name=Assembly
**  
*Instance, name=Part-1-1, part=Part-1
*Node
      1,          0.5,           0.,           0.
      2,           0.,           0.,           0.
      3,           0., 0.0700000003,           0.
      4,          0.5, 0.0700000003,           0.
      5,           0.,           0., 0.00999999978
      6,           0., 0.0700000003, 0.00999999978
      7,          0.5, 0.0700000003, 0.00999999978
      8,          0.5,           0., 0.00999999978
      9, -0.0700000003,           0., 0.00999999978
     10, -0.0700000003,           0.,           0.
     11, -0.0700000003, -0.0700000003,           0.
     12, -0.0700000003, -0.0700000003, 0.00999999978
     13,           0., -0.0700000003,           0.
     14,           0., -0.0700000003, 0.00999999978
     15,          0.5, -0.0700000003,           0.
     16,          0.5, -0.0700000003, 0.00999999978
     17, -0.0700000003, 0.0700000003,           0.
     18, -0.0700000003, 0.0700000003, 0.00999999978
     19,          0.5,          0.5, 0.00999999978
     20,         -0.5,          0.5, 0.00999999978
** ... 33520 like lines cut
*Element, type=C3D8RT
   1,    8,  570, 5331,  759,    1,   29, 1679,  404
   2,  570,  569, 5332, 5331,   29,   30, 1680, 1679
   3,  569,  568, 5333, 5332,   30,   31, 1681, 1680
   4,  568,  567, 5334, 5333,   31,   32, 1682, 1681
   5,  567,  566, 5335, 5334,   32,   33, 1683, 1682
   6,  566,  565, 5336, 5335,   33,   34, 1684, 1683
   7,  565,  564, 5337, 5336,   34,   35, 1685, 1684
   8,  564,  563, 5338, 5337,   35,   36, 1686, 1685
   9,  563,  562, 5339, 5338,   36,   37, 1687, 1686
  10,  562,  561, 5340, 5339,   37,   38, 1688, 1687
  11,  561,  560, 5341, 5340,   38,   39, 1689, 1688
  12,  560,  559, 5342, 5341,   39,   40, 1690, 1689
  13,  559,  558, 5343, 5342,   40,   41, 1691, 1690
  14,  558,  557, 5344, 5343,   41,   42, 1692, 1691
  15,  557,  556, 5345, 5344,   42,   43, 1693, 1692
  16,  556,  555, 5346, 5345,   43,   44, 1694, 1693
  17,  555,  554, 5347, 5346,   44,   45, 1695, 1694
  18,  554,  553, 5348, 5347,   45,   46, 1696, 1695
  19,  553,  552, 5349, 5348,   46,   47, 1697, 1696
  20,  552,  551, 5350, 5349,   47,   48, 1698, 1697
** ... 16622 like lines cut
*Nset, nset=Set-1, generate
     1,  33540,      1
*Elset, elset=Set-1, generate
     1,  16642,      1
** Section: Section-1
*Solid Section, elset=Set-1, material=Material-1
,
*End Instance
**  
*Nset, nset=Set-4, instance=Part-1-1
   27,   28, 1651, 1652, 1653, 1654, 1655, 1656, 1657, 1658, 1659, 1660, 1661, 1662, 1663, 1664
 1665, 1666, 1667, 1668, 1669
*Elset, elset=Set-4, instance=Part-1-1
 12720, 12742, 12746, 12749, 12756, 12757, 12769, 12770, 12771, 12786, 12796, 12798, 12806, 12814, 12907, 12908
 16102, 16105, 16127, 16129
*Nset, nset=Set-5, instance=Part-1-1
   23,   24, 1532, 1533, 1534, 1535, 1536, 1537, 1538, 1539, 1540, 1541, 1542, 1543, 1544, 1545
 1546, 1547, 1548, 1549, 1550
*Elset, elset=Set-5, instance=Part-1-1
  8757,  8758,  8777,  8779,  8780,  8783,  8784,  8785,  8792,  8799,  8800,  8813,  8818,  8819,  8826,  8841
  8938,  8939,  8940, 12198
*Nset, nset=Set-20, instance=Part-1-1
   27,   28, 1651, 1652, 1653, 1654, 1655, 1656, 1657, 1658, 1659, 1660, 1661, 1662, 1663, 1664
 1665, 1666, 1667, 1668, 1669
*Elset, elset=Set-20, instance=Part-1-1
 12720, 12742, 12746, 12749, 12756, 12757, 12769, 12770, 12771, 12786, 12796, 12798, 12806, 12814, 12907, 12908
 16102, 16105, 16127, 16129
*Nset, nset=Set-21, instance=Part-1-1
   23,   24, 1532, 1533, 1534, 1535, 1536, 1537, 1538, 1539, 1540, 1541, 1542, 1543, 1544, 1545
 1546, 1547, 1548, 1549, 1550
*Elset, elset=Set-21, instance=Part-1-1
  8757,  8758,  8777,  8779,  8780,  8783,  8784,  8785,  8792,  8799,  8800,  8813,  8818,  8819,  8826,  8841
  8938,  8939,  8940, 12198
*Nset, nset=Set-22, instance=Part-1-1
   23,   24, 1532, 1533, 1534, 1535, 1536, 1537, 1538, 1539, 1540, 1541, 1542, 1543, 1544, 1545
 1546, 1547, 1548, 1549, 1550
*Elset, elset=Set-22, instance=Part-1-1
  8757,  8758,  8777,  8779,  8780,  8783,  8784,  8785,  8792,  8799,  8800,  8813,  8818,  8819,  8826,  8841
  8938,  8939,  8940, 12198
*Nset, nset=Set-28, instance=Part-1-1
   25,   26,   27,   28, 1584, 1585, 1586, 1587, 1588, 1589, 1590, 1591, 1592, 1593, 1594, 1595
 1596, 1597, 1598, 1599, 1600, 1601, 1602, 1651, 1652, 1653, 1654, 1655, 1656, 1657, 1658, 1659
 1660, 1661, 1662, 1663, 1664, 1665, 1666, 1667, 1668, 1669
*Elset, elset=Set-28, instance=Part-1-1
 12720, 12742, 12746, 12749, 12756, 12757, 12769, 12770, 12771, 12786, 12796, 12798, 12806, 12814, 12907, 12908
 16102, 16105, 16127, 16129
*Nset, nset=Set-29, instance=Part-1-1
   19,   20,   23,   24, 1445, 1446, 1447, 1448, 1449, 1450, 1451, 1452, 1453, 1454, 1455, 1456
 1457, 1458, 1459, 1460, 1461, 1462, 1463, 1532, 1533, 1534, 1535, 1536, 1537, 1538, 1539, 1540
 1541, 1542, 1543, 1544, 1545, 1546, 1547, 1548, 1549, 1550
*Elset, elset=Set-29, instance=Part-1-1
  8757,  8758,  8777,  8779,  8780,  8783,  8784,  8785,  8792,  8799,  8800,  8813,  8818,  8819,  8826,  8841
  8938,  8939,  8940, 12198
*Nset, nset=Set-30, instance=Part-1-1
     2,     5,     9,    10,    21,    22,   891,   892,   893,   894,   895,   896,   897,   898,   899,   900
   901,   902,   903,   904,   905,   906,   907,   908,   909,   910,   911,   912,   935,   936,   937,   938
   939,   940,   941,   942,   943,   944,   945,   946,   947,   948,   949,   950,   951,   952,   953,   954
   955,   956,  1473,  1474,  1475,  1476,  1477,  1478,  1479,  1480,  1481,  1482,  1483,  1484,  1485,  1486
  1487,  1488,  1489,  1490,  1491,  1492,  1493,  1494,  1495,  1496,  1497,  1498,  1499,  1500,  1501,  1502
  1503,  1504,  1505,  1506,  1507,  1508,  1509,  1510,  1511,  1512,  1513,  1514,  1515,  1516,  1517,  1518
  1519,  1520,  1521,  1522, 33443, 33444, 33445, 33446, 33447, 33448, 33449, 33450, 33451, 33452, 33453, 33454
 33455, 33456, 33457, 33458, 33459, 33460, 33461, 33462, 33463, 33464, 33465, 33466, 33467, 33468, 33469, 33470
 33471, 33472, 33473, 33474, 33475, 33476, 33477, 33478, 33479, 33480, 33481, 33482, 33483, 33484, 33485, 33486
 33487, 33488, 33489, 33490, 33491, 33492, 33493, 33494, 33495, 33496, 33497, 33498, 33499, 33500, 33501, 33502
 33503, 33504, 33505, 33506, 33507, 33508, 33509, 33510, 33511, 33512, 33513, 33514, 33515, 33516, 33517, 33518
 33519, 33520, 33521, 33522, 33523, 33524, 33525, 33526, 33527, 33528, 33529, 33530, 33531, 33532, 33533, 33534
 33535, 33536, 33537, 33538, 33539, 33540
*Elset, elset=Set-30, instance=Part-1-1
  3842,  3865,  3888,  3911,  3934,  3957,  3980,  4003,  4026,  4049,  4072,  4095,  4118,  4141,  4164,  4187
  4210,  4233,  4256,  4279,  4302,  4325,  4348,  8234,  8257,  8280,  8303,  8326,  8349,  8372,  8395,  8418
  8441,  8464,  8487,  8510,  8533,  8556,  8579,  8602,  8625,  8648,  8671,  8694,  8717,  8740,  8749,  8750
  8843,  8846,  8849,  8850,  8851,  8852,  8860,  8862,  8941,  8942,  8943,  8945,  8946,  8947,  8949,  8950
  8953,  8955,  8957,  8958,  9087, 12167, 12205, 12206, 12760, 12762, 12780, 12787, 12797, 12805, 12813, 12891
 12892, 12893, 12894, 12895, 12896, 12897, 12898, 12899, 12900, 12901, 12904, 13041, 13045, 13046, 13051, 13214
 13215, 15847
*End Assembly
*Amplitude, name=Amp-1, definition=SMOOTH STEP
             0.,              0.,           0.001,              1.
** 
** MATERIALS
** 
*Material, name=Material-1
*Conductivity
1.,
*Density
 2.33e-07,
*Depvar
     13,
*Inelastic Heat Fraction
          1.,
*Specific Heat
6742.,
*User Material, constants=4
210000.,  0.3, 0.01,  2.7
** 
** BOUNDARY CONDITIONS
** 
** Name: BC-3 Type: Displacement/Rotation
*Boundary
Set-28, 1, 1
Set-28, 2, 2
Set-28, 3, 3
** Name: BC-4 Type: Displacement/Rotation
*Boundary
Set-29, 1, 1
Set-29, 2, 2
Set-29, 3, 3
** ----------------------------------------------------------------
** 
** STEP: Step-1
** 
*Step, name=Step-1, nlgeom=NO
*Dynamic Temperature-displacement, Explicit, direct user control
1e-09, 0.001
*Bulk Viscosity
0.06, 1.2
** 
** BOUNDARY CONDITIONS
** 
** Name: BC-4 Type: Displacement/Rotation
*Boundary, amplitude=Amp-1
Set-29, 1, 1
Set-29, 2, 2, 0.01
Set-29, 3, 3
** 
** OUTPUT REQUESTS
** 
*Restart, write, number interval=1, time marks=NO
** 
** FIELD OUTPUT: F-Output-1
** 
*Output, field, number interval=100
*Node Output
RF, U
*Element Output, directions=YES
S, SDV, TEMP
** 
** HISTORY OUTPUT: H-Output-1
** 
*Output, history, variable=PRESELECT
*End Step
